Hello world!
12345
God bye!
Line from user2
Line from user1
New line.